Version 4
SHEET 1 1520 680
WIRE 48 16 -16 16
WIRE 160 16 112 16
WIRE 336 16 160 16
WIRE 608 16 400 16
WIRE 608 32 608 16
WIRE 528 80 384 80
WIRE 160 96 160 80
WIRE 528 112 528 80
WIRE 560 112 528 112
WIRE -16 160 -16 16
WIRE 336 160 224 160
WIRE 608 160 608 128
WIRE 832 160 608 160
WIRE 1152 160 1088 160
WIRE 1216 160 1152 160
WIRE 160 192 160 160
WIRE 224 192 224 160
WIRE 224 192 160 192
WIRE 608 192 608 160
WIRE 1152 192 1152 160
WIRE 1216 192 1216 160
WIRE 224 208 224 192
WIRE 384 208 384 176
WIRE 384 208 288 208
WIRE -16 304 -16 240
WIRE 160 304 160 256
WIRE 160 304 -16 304
WIRE 384 304 384 272
WIRE 384 304 160 304
WIRE 608 304 608 256
WIRE 608 304 384 304
WIRE 960 304 960 256
WIRE 960 304 608 304
WIRE 1152 304 1152 256
WIRE 1152 304 960 304
WIRE 1216 304 1216 256
WIRE 1216 304 1152 304
WIRE 384 336 384 304
FLAG 384 336 0
SYMBOL voltage -16 144 R0
WINDOW 123 0 0 Left 2
WINDOW 39 0 0 Left 2
SYMATTR InstName V1
SYMATTR Value SINE(155 155 50)
SYMBOL res2 144 96 R0
SYMATTR InstName R1
SYMATTR Value 10000R
SYMBOL zener 176 256 R180
WINDOW 0 24 64 Left 2
WINDOW 3 24 0 Left 2
SYMATTR InstName D1
SYMATTR Value BZX84C10L
SYMBOL pmos 336 80 R0
SYMATTR InstName M1
SYMBOL nmos 560 32 R0
SYMATTR InstName M2
SYMATTR Value BSS123
SYMBOL schottky 224 224 R270
WINDOW 0 32 32 VTop 2
WINDOW 3 0 32 VBottom 2
SYMATTR InstName D2
SYMATTR Value CMDSH2-3
SYMBOL cap 592 192 R0
SYMATTR InstName C1
SYMATTR Value .00003C
SYMATTR SpiceLine V=20
SYMBOL cap 368 208 R0
SYMATTR InstName C2
SYMATTR Value 100nC
SYMATTR SpiceLine V=100
SYMBOL diode 48 32 R270
WINDOW 0 32 32 VTop 2
WINDOW 3 0 32 VBottom 2
SYMATTR InstName D4
SYMBOL cap 144 16 R0
SYMATTR InstName C3
SYMATTR Value .1µC
SYMATTR SpiceLine V=100
SYMBOL res2 1136 192 R0
SYMATTR InstName R3
SYMATTR Value 1000R
SYMBOL cap 1200 192 R0
SYMATTR InstName C6
SYMATTR Value .00001C
SYMATTR SpiceLine V=20
SYMBOL PowerProducts\\LT1117-3.3 960 160 R0
SYMATTR InstName U2
SYMBOL res2 400 0 R90
WINDOW 0 0 32 VBottom 2
WINDOW 3 32 32 VTop 2
SYMATTR InstName R2
SYMATTR Value 200R
TEXT -48 360 Left 2 !.tran 0 2s 0.1 0.01 startup
